<?xml version="1.0" encoding="UTF-8"?>

<!-- generated on Mon Apr  6 15:29:18 2020 by Eclipse SUMO polyconvert Version 1.3.1
<configuration xmlns:xsi="http://www.w3.org/2001/XMLSchema-instance" xsi:noNamespaceSchemaLocation="http://sumo.dlr.de/xsd/polyconvertConfiguration.xsd">

    <input>
        <net-file value="osm.net.xml"/>
        <osm-files value="osm_bbox.osm.xml"/>
        <osm.keep-full-type value="true"/>
        <type-file value="/usr/local/Cellar/sumo/1.3.1/share/sumo/data/typemap/osmPolyconvert.typ.xml"/>
    </input>

    <output>
        <output-file value="osm.poly.xml"/>
    </output>

    <processing>
        <poi-layer-offset value="5"/>
    </processing>

    <report>
        <verbose value="true"/>
    </report>

</configuration>
-->

<additional xmlns:xsi="http://www.w3.org/2001/XMLSchema-instance" xsi:noNamespaceSchemaLocation="http://sumo.dlr.de/xsd/additional_file.xsd">
    <location netOffset="-297600.33,-2745260.77" convBoundary="-5044.94,-980.21,5113.53,4595.51" origBoundary="120.947195,24.800461,121.048089,24.850375" projParameter="+proj=utm +zone=51 +ellps=WGS84 +datum=WGS84 +units=m +no_defs"/>

    <poly id="131761693" type="amenity.parking" color="184,184,179" fill="1" layer="-1.00" shape="1756.897378,1522.438962 1825.313092,1667.800722 1853.366199,1642.364564 1872.249610,1624.662214 1878.629538,1599.607833 1839.925203,1519.125930 1828.573502,1492.257637 1756.897378,1522.438962"/>
    <poly id="219022056" type="amenity.university" color="237,199,199" fill="1" layer="-1.00" shape="2331.371836,1513.459666 2536.806576,1440.935995 2755.262628,1926.043124 2356.884260,2125.361507 2254.102809,1919.715825 2189.989086,1763.144170 2248.491013,1765.097775 2312.161172,1734.403648 2365.189183,1632.259135 2371.801797,1612.032226 2346.673323,1547.106870 2331.371836,1513.459666"/>
    <poly id="247355221" type="amenity.parking" color="184,184,179" fill="1" layer="-1.00" shape="2269.544915,3435.588321 2297.587864,3415.936303 2255.640584,3356.739724 2227.597560,3376.391822 2266.407099,3431.157878 2269.544915,3435.588321"/>
    <poly id="247355221#1" type="building.yes" color="255,230,230" fill="1" layer="-1.00" shape="2269.544915,3435.588321 2297.587864,3415.936303 2255.640584,3356.739724 2227.597560,3376.391822 2266.407099,3431.157878 2269.544915,3435.588321"/>
    <poly id="256467721" type="amenity.school" color="237,199,199" fill="1" layer="-1.00" shape="1731.240290,2527.226987 1645.877963,2534.364305 1656.776662,2648.156126 1657.996275,2656.226249 1743.892003,2640.638757 1823.280909,2635.073553 1827.964781,2626.917507 1820.131053,2520.072091 1731.240290,2527.226987"/>
    <poly id="272762872" type="leisure.pitch" color="207,245,201" fill="1" layer="-2.00" shape="2131.841560,1421.517983 2114.134032,1425.542127 2094.424248,1422.593295 2081.990833,1415.893704 2072.762122,1409.845557 2067.301804,1403.576477 2061.741467,1392.511534 2056.084318,1369.216505 2053.515328,1348.989877 2053.869756,1325.363761 2062.231207,1300.945478 2074.654285,1279.780894 2088.336944,1263.184837 2100.808103,1255.070939 2113.727609,1246.496293 2121.412177,1242.994431 2137.454037,1241.232514 2147.226523,1243.638821 2158.037278,1247.215536 2167.540317,1254.046388 2177.647415,1267.660050 2182.923481,1277.953615 2184.563703,1285.064832 2184.279878,1301.034143 2159.293552,1397.786398 2142.463287,1415.569268 2131.841560,1421.517983"/>
    <poly id="272762874" type="building.yes" color="255,230,230" fill="1" layer="-1.00" shape="2160.127826,1108.461974 2152.726271,1093.856214 2180.137974,1081.924714 2186.248467,1089.790893 2199.133798,1095.564457 2208.358198,1097.823662 2213.038575,1117.233021 2199.081583,1119.828750 2198.515585,1108.702331 2175.571154,1097.501956 2160.127826,1108.461974"/>
    <poly id="272762875" type="leisure.park" color="207,245,201" fill="1" layer="-2.00" shape="1868.411926,1269.007101 1914.992613,1249.273456 1976.758808,1223.114878 1978.065323,1222.564084 2025.038320,1202.670027 2108.643367,1167.264889 2403.052465,1122.386559 2412.253318,1120.934697 2515.240860,1374.119594 2172.857688,1503.939111 2147.032555,1515.049953 2103.397736,1511.307456 2060.788401,1496.027769 1974.384002,1395.742067 1946.002194,1365.232424 1925.018944,1343.556226 1904.694430,1314.336579 1868.411926,1269.007101"/>
    <poly id="276916493" type="amenity.school" color="237,199,199" fill="1" layer="-1.00" shape="1562.112814,3085.373115 1557.430057,3088.033928 1580.790269,3119.612943 1590.390269,3120.669597 1671.375622,3082.606580 1760.737808,3026.141260 1725.690847,2937.673773 1649.771764,2944.640526 1597.555068,2958.087140 1558.443553,2963.343683 1508.404251,2979.805723 1554.056212,3083.385478 1559.911460,3080.009577 1562.112814,3085.373115"/>
    <poly id="276917503" type="building.commercial" color="255,230,230" fill="1" layer="-1.00" shape="2075.061049,3745.909265 2128.892328,3707.412664 2103.681621,3671.483473 2060.575356,3701.536879 2049.486174,3709.276386 2053.265026,3714.683516 2075.061049,3745.909265"/>
    <poly id="276917504" type="building.commercial" color="255,230,230" fill="1" layer="-1.00" shape="2072.688845,3755.194966 2047.831626,3718.551655 2027.172448,3732.823122 1993.631354,3755.990350 2018.488667,3792.633571 2072.688845,3755.194966"/>
    <poly id="276917505" type="building.commercial" color="255,230,230" fill="1" layer="-1.00" shape="1998.971142,3779.046227 1975.569884,3744.509075 1930.924193,3774.341584 1932.338286,3776.337437 1956.129895,3809.904942 1998.971142,3779.046227"/>
    <poly id="276917506" type="building.commercial" color="255,230,230" fill="1" layer="-1.00" shape="2089.326132,3619.375830 2167.244756,3564.519659 2141.311119,3528.246363 2064.104868,3582.737773 2089.326132,3619.375830"/>
    <poly id="276917507" type="building.commercial" color="255,230,230" fill="1" layer="-1.00" shape="2018.059388,3685.281501 2046.903978,3665.196222 2035.476398,3648.976162 2072.057580,3623.493604 2051.390844,3594.157063 1985.974909,3639.713789 2018.059388,3685.281501"/>
    <poly id="276917508" type="leisure.sports_centre" color="207,245,201" fill="1" layer="-2.00" shape="1964.740519,3688.804848 1994.142043,3668.090908 1974.022254,3638.137155 1943.559580,3659.575649 1964.740519,3688.804848"/>
    <poly id="276917509" type="amenity.cafe" color="237,199,199" fill="1" layer="-1.00" shape="1932.262489,3669.700327 1962.596110,3713.742299 1940.657815,3730.425642 1916.411383,3736.473254 1890.994988,3735.070493 1870.878597,3729.668554 1863.182359,3717.681995 1932.262489,3669.700327"/>
    <poly id="276917509#1" type="building.yes" color="255,230,230" fill="1" layer="-1.00" shape="1932.262489,3669.700327 1962.596110,3713.742299 1940.657815,3730.425642 1916.411383,3736.473254 1890.994988,3735.070493 1870.878597,3729.668554 1863.182359,3717.681995 1932.262489,3669.700327"/>
    <poly id="276917510" type="amenity.restaurant" color="237,199,199" fill="1" layer="-1.00" shape="2221.082009,3526.366878 2197.327551,3492.554657 2144.808726,3527.519686 2168.285114,3562.366238 2184.590796,3551.814448 2188.933153,3554.953251 2196.099807,3555.558174 2200.718346,3553.352757 2204.588324,3549.030998 2204.505587,3543.337453 2202.664827,3539.807756 2221.082009,3526.366878"/>
    <poly id="276917510#1" type="building.yes" color="255,230,230" fill="1" layer="-1.00" shape="2221.082009,3526.366878 2197.327551,3492.554657 2144.808726,3527.519686 2168.285114,3562.366238 2184.590796,3551.814448 2188.933153,3554.953251 2196.099807,3555.558174 2200.718346,3553.352757 2204.588324,3549.030998 2204.505587,3543.337453 2202.664827,3539.807756 2221.082009,3526.366878"/>
    <poly id="276917511" type="building.commercial" color="255,230,230" fill="1" layer="-1.00" shape="2243.348083,3458.437650 2260.175960,3483.819529 2255.498101,3506.300850 2233.195253,3522.988963 2227.704049,3514.537709 2219.902287,3519.625663 2210.401529,3505.892466 2224.585040,3496.789717 2212.525688,3479.526168 2243.348083,3458.437650"/>
    <poly id="276917512" type="building.commercial" color="255,230,230" fill="1" layer="-1.00" shape="1728.035427,3813.591520 1770.993420,3783.838284 1729.416750,3722.421922 1685.946487,3753.800321 1728.035427,3813.591520"/>
    <poly id="276917513" type="building.commercial" color="255,230,230" fill="1" layer="-1.00" shape="1732.743946,3708.612954 1691.744032,3649.337664 1653.100610,3676.867781 1694.100629,3736.142964 1732.743946,3708.612954"/>
    <poly id="276917514" type="building.commercial" color="255,230,230" fill="1" layer="-1.00" shape="1633.102700,3626.194372 1629.155469,3620.346624 1606.619014,3586.960731 1595.965647,3571.183956 1554.621171,3599.296602 1593.929314,3654.818155 1633.102700,3626.194372"/>
    <poly id="276917515" type="building.commercial" color="255,230,230" fill="1" layer="-1.00" shape="1566.807292,3579.430997 1616.202320,3545.273629 1582.957686,3497.219708 1533.016720,3531.385146 1566.807292,3579.430997"/>
    <poly id="276917516" type="building.commercial" color="255,230,230" fill="1" layer="-1.00" shape="1512.722930,3534.650309 1559.432668,3502.149478 1528.376610,3455.138456 1479.519340,3488.745396 1512.722930,3534.650309"/>
    <poly id="276917519" type="amenity.restaurant" color="237,199,199" fill="1" layer="-1.00" shape="1606.619014,3586.960731 1614.309718,3577.043446 1625.751469,3571.303796 1640.096902,3572.645839 1650.489420,3580.238834 1655.625930,3590.689331 1654.875560,3603.718456 1648.466702,3612.797169 1640.755833,3617.861990 1629.155469,3620.346624 1606.619014,3586.960731"/>
    <poly id="276917519#1" type="building.yes" color="255,230,230" fill="1" layer="-1.00" shape="1606.619014,3586.960731 1614.309718,3577.043446 1625.751469,3571.303796 1640.096902,3572.645839 1650.489420,3580.238834 1655.625930,3590.689331 1654.875560,3603.718456 1648.466702,3612.797169 1640.755833,3617.861990 1629.155469,3620.346624 1606.619014,3586.960731"/>
    <poly id="321407538" type="amenity.school" color="237,199,199" fill="1" layer="-1.00" shape="2307.830473,3198.811235 2202.865337,3028.972910 2300.597850,2968.800012 2330.399774,2950.452124 2409.436927,3123.492833 2307.830473,3198.811235"/>
    <poly id="321409603" type="landuse.religious" color="194,194,130" fill="0" layer="-3.00" shape="2033.126404,1178.920460 2019.696068,1150.254155 1993.579033,1163.585327 2002.929588,1191.225131"/>
    <poly id="321415413" type="leisure.park" color="207,245,201" fill="1" layer="-2.00" shape="1603.261346,1938.165644 1637.431139,1919.697375 1593.900875,1836.294956 1558.474536,1855.280192 1603.261346,1938.165644"/>
    <poly id="321415415" type="leisure.park" color="207,245,201" fill="1" layer="-2.00" shape="1527.007551,1836.493916 1579.580814,1807.664151 1503.237120,1660.324956 1448.194807,1689.058009 1527.007551,1836.493916"/>
    <poly id="321415417" type="leisure.park" color="207,245,201" fill="1" layer="-2.00" shape="1620.341867,1866.843224 1717.031472,1817.927417 1697.683373,1780.063103 1601.373771,1830.092501 1620.341867,1866.843224"/>
    <poly id="321415418" type="amenity.parking" color="184,184,179" fill="1" layer="-1.00" shape="1521.631503,2149.651034 1542.379290,2137.848384 1556.056324,2129.993305 1524.345530,2070.150752 1490.167601,2088.719180 1498.720285,2105.279955 1521.631503,2149.651034"/>
    <poly id="321415419" type="leisure.park" color="207,245,201" fill="1" layer="-2.00" shape="1832.477526,1814.142328 1796.175619,1737.536587 1878.906378,1686.775493 1905.340923,1684.230593 1927.871264,1691.337158 1945.762527,1700.671663 1960.331239,1713.766047 1980.557290,1737.646959 2053.701358,1823.146102 2094.248329,1865.655232 2084.861129,1872.339469 2080.267885,1864.495620 1968.504084,1743.871461 1832.477526,1814.142328"/>
    <poly id="321782401" type="amenity.parking" color="184,184,179" fill="1" layer="-1.00" shape="1613.521515,1187.394638 1673.889172,1156.169658 1646.607417,1099.198299 1645.230854,1096.326647 1585.592871,1122.123339 1601.446635,1159.517720 1613.521515,1187.394638"/>
    <poly id="321782402" type="leisure.park" color="207,245,201" fill="1" layer="-2.00" shape="1580.174600,1109.738050 1639.822739,1083.941191 1602.524692,996.049421 1551.087682,871.912795 1482.091669,916.204520 1580.174600,1109.738050"/>
    <poly id="321782404" type="leisure.park" color="207,245,201" fill="1" layer="-2.00" shape="1699.928461,968.672832 1745.668672,946.712908 1687.861735,800.997495 1635.459139,834.200303 1699.928461,968.672832"/>
    <poly id="321782405" type="leisure.park" color="207,245,201" fill="1" layer="-2.00" shape="1768.793055,1116.199489 1814.089470,1094.345925 1827.273724,1087.983013 1767.829106,974.875299 1710.219842,1007.411307 1768.793055,1116.199489"/>
    <poly id="321782406" type="leisure.park" color="207,245,201" fill="1" layer="-2.00" shape="2040.485056,888.503975 1996.970826,803.427130 1929.141452,854.347073 1977.312452,922.371563 2040.485056,888.503975"/>
    <poly id="323042561" type="amenity.parking" color="184,184,179" fill="1" layer="-1.00" shape="1624.906186,2759.779013 1620.332164,2728.967640 1631.443521,2727.564879 1626.250207,2679.921991 1653.621778,2675.202331 1658.500619,2724.168239 1659.152266,2730.728771 1662.233569,2756.243830 1624.906186,2759.779013"/>
    <poly id="323042562" type="amenity.marketplace" color="237,199,199" fill="1" layer="-1.00" shape="1676.567368,2810.179579 1667.252191,2738.454930 1736.379747,2730.213426 1743.942258,2801.719866 1676.567368,2810.179579"/>
    <poly id="323042562#1" type="building.yes" color="255,230,230" fill="1" layer="-1.00" shape="1676.567368,2810.179579 1667.252191,2738.454930 1736.379747,2730.213426 1743.942258,2801.719866 1676.567368,2810.179579"/>
    <poly id="323046911" type="amenity.parking" color="184,184,179" fill="1" layer="-1.00" shape="1602.371125,1708.349828 1666.904780,1673.130788 1652.424715,1643.926118 1634.595818,1652.783249 1630.866948,1655.020167 1586.330252,1678.902047 1602.371125,1708.349828"/>
    <poly id="323052937" type="leisure.park" color="207,245,201" fill="1" layer="-2.00" shape="1660.211253,2313.345196 1692.429335,2306.029015 1682.162591,2227.282889 1633.416455,2223.738351 1660.211253,2313.345196"/>
    <poly id="323052938" type="landuse.construction" color="194,194,130" fill="1" layer="-3.00" shape="1659.770553,2392.081072 1707.109922,2381.686232 1699.597790,2346.984484 1692.429335,2306.029015 1660.211253,2313.345196 1633.416455,2223.738351 1581.930903,2231.346427 1628.814633,2333.324202 1642.353189,2359.706231 1659.770553,2392.081072"/>
    <poly id="323052940" type="amenity.theatre" color="237,199,199" fill="1" layer="-1.00" shape="1571.407927,2328.676264 1539.416326,2379.974263 1512.054418,2364.585026 1508.973235,2359.910151 1507.477895,2355.821524 1504.834687,2348.592026 1504.438491,2342.914118 1498.566949,2341.725578 1494.845246,2340.971036 1497.409867,2328.934768 1500.826006,2321.905015 1502.210013,2319.048541 1513.287925,2307.696987 1515.200087,2311.247733 1518.639083,2317.579290 1522.303766,2315.808590 1529.097170,2313.648836 1536.234880,2312.913298 1542.925079,2314.078845 1549.773850,2315.718495 1571.407927,2328.676264"/>
    <poly id="323052940#1" type="building.yes" color="255,230,230" fill="1" layer="-1.00" shape="1571.407927,2328.676264 1539.416326,2379.974263 1512.054418,2364.585026 1508.973235,2359.910151 1507.477895,2355.821524 1504.834687,2348.592026 1504.438491,2342.914118 1498.566949,2341.725578 1494.845246,2340.971036 1497.409867,2328.934768 1500.826006,2321.905015 1502.210013,2319.048541 1513.287925,2307.696987 1515.200087,2311.247733 1518.639083,2317.579290 1522.303766,2315.808590 1529.097170,2313.648836 1536.234880,2312.913298 1542.925079,2314.078845 1549.773850,2315.718495 1571.407927,2328.676264"/>
    <poly id="323052942" type="building.yes" color="255,230,230" fill="1" layer="-1.00" shape="1584.104816,2406.234711 1617.975640,2351.364073 1599.398482,2340.023596 1598.143646,2339.255247 1596.868432,2338.476116 1562.997812,2393.357885 1565.640021,2394.970201 1584.104816,2406.234711"/>
    <poly id="323052942#1" type="tourism.museum" color="207,245,201" fill="1" layer="-2.00" shape="1584.104816,2406.234711 1617.975640,2351.364073 1599.398482,2340.023596 1598.143646,2339.255247 1596.868432,2338.476116 1562.997812,2393.357885 1565.640021,2394.970201 1584.104816,2406.234711"/>
    <poly id="323053510" type="leisure.park" color="207,245,201" fill="1" layer="-2.00" shape="1916.760292,2721.682874 1847.447134,2710.227193 1843.398110,2652.928654 1919.517439,2653.361156 1916.760292,2721.682874"/>
    <poly id="323207964" type="man_made.embankment" color="255,230,230" fill="0" layer="-1.00" shape="20.249470,1799.488505 59.357915,1782.782871 151.799479,1742.316221 242.770489,1695.999730 273.564282,1678.364128 313.214546,1655.812497 352.794862,1632.619413 409.468956,1599.426174 499.273514,1545.151481 646.854882,1448.617304 732.519662,1392.554618 844.980040,1316.357459 920.491486,1266.338696 1093.228982,1150.574223 1135.703540,1120.427888 1328.952279,981.832074 1546.861065,826.793046"/>
    <poly id="323212276" type="amenity.school" color="237,199,199" fill="1" layer="-1.00" shape="1745.668672,946.712908 1789.659584,925.443348 1837.646990,882.766086 1896.817537,825.412610 1822.723759,659.702788 1815.660939,663.561367 1750.773279,738.758378 1706.354618,782.791052 1687.861735,800.997495 1745.668672,946.712908"/>
    <poly id="323220656" type="landuse.construction" color="194,194,130" fill="1" layer="-3.00" shape="2648.795295,1600.338499 2750.500864,1557.418057 2715.592630,1461.512283 2680.297369,1379.405793 2575.122444,1421.634621 2648.795295,1600.338499"/>
    <poly id="323220656#1" type="shop.mall" color="237,199,255" fill="1" layer="-1.00" shape="2648.795295,1600.338499 2750.500864,1557.418057 2715.592630,1461.512283 2680.297369,1379.405793 2575.122444,1421.634621 2648.795295,1600.338499"/>
    <poly id="323235722" type="amenity.fuel" color="237,199,199" fill="1" layer="-1.00" shape="1760.967351,1650.644510 1785.816411,1640.588552 1789.574737,1649.408365 1765.486787,1659.652669 1760.967351,1650.644510"/>
    <poly id="323235722#1" type="building.yes" color="255,230,230" fill="1" layer="-1.00" shape="1760.967351,1650.644510 1785.816411,1640.588552 1789.574737,1649.408365 1765.486787,1659.652669 1760.967351,1650.644510"/>
    <poly id="323235723" type="building.yes" color="255,230,230" fill="1" layer="-1.00" shape="1691.987746,1956.960318 1744.806547,1929.036093 1703.800572,1852.288529 1650.971423,1880.213041 1691.987746,1956.960318"/>
    <poly id="323235724" type="building.yes" color="255,230,230" fill="1" layer="-1.00" shape="1715.854328,1788.462583 1764.272834,1763.139705 1783.081777,1798.707453 1767.788596,1806.707658 1760.187790,1792.315498 1756.163681,1794.412651 1759.407853,1800.558753 1749.453252,1805.766862 1746.292368,1799.785738 1740.923794,1802.600458 1748.337009,1816.607564 1734.549110,1823.821430 1715.854328,1788.462583"/>
    <poly id="323235725" type="building.yes" color="255,230,230" fill="1" layer="-1.00" shape="1787.687455,1917.177626 1828.481315,1895.300760 1821.447457,1882.340631 1807.511666,1889.811402 1795.895404,1868.375839 1782.581860,1875.527361 1794.062852,1896.698980 1780.528389,1903.953435 1787.687455,1917.177626"/>
    <poly id="323384340" type="building.yes" color="255,230,230" fill="1" layer="-1.00" shape="1563.732904,3027.271759 1548.348926,3037.954859 1595.336597,3104.875973 1607.406508,3096.423838 1599.275944,3085.197110 1569.010570,3041.841685 1572.333575,3039.533074 1563.732904,3027.271759"/>
    <poly id="323384341" type="building.yes" color="255,230,230" fill="1" layer="-1.00" shape="1607.406508,3096.423838 1660.491013,3057.914268 1652.286871,3047.187152 1599.275944,3085.197110 1607.406508,3096.423838"/>
    <poly id="323384342" type="building.yes" color="255,230,230" fill="1" layer="-1.00" shape="1619.790313,3092.166198 1656.692412,3065.747279 1663.925448,3075.746231 1627.023365,3102.165132 1619.790313,3092.166198"/>
    <poly id="323384343" type="building.yes" color="255,230,230" fill="1" layer="-1.00" shape="1651.998124,3028.755397 1669.211478,3051.339075 1660.491013,3057.914268 1643.277812,3035.341678 1651.998124,3028.755397"/>
    <poly id="323384344" type="building.yes" color="255,230,230" fill="1" layer="-1.00" shape="1642.133518,3010.928484 1635.991860,3014.773849 1642.656027,3025.279649 1648.797519,3021.423210 1642.133518,3010.928484"/>
    <poly id="323384345" type="building.yes" color="255,230,230" fill="1" layer="-1.00" shape="1628.849793,3016.573043 1638.785465,3009.437240 1620.450883,2984.155500 1610.515039,2991.280238 1628.849793,3016.573043"/>
    <poly id="323384346" type="building.yes" color="255,230,230" fill="1" layer="-1.00" shape="1559.652600,3022.711159 1612.058440,2986.183427 1605.378919,2976.708237 1552.973056,3013.235993 1559.652600,3022.711159"/>
    <poly id="323384347" type="leisure.track" color="207,245,201" fill="1" layer="-2.00" shape="1685.863804,3069.421667 1609.883794,2961.142646 1619.542761,2954.442957 1629.041563,2967.976419 1634.071398,2959.294516 1641.409134,2954.268400 1656.227315,2952.623292 1667.013767,2957.385370 1705.951638,3013.787969 1707.492467,3020.313393 1706.548060,3026.276732 1700.690406,3034.350224 1697.618257,3035.835280 1697.219896,3036.251016 1688.790216,3037.803030 1679.302711,3037.531295 1696.503488,3062.031905 1685.863804,3069.421667"/>
    <poly id="323384347#1" type="sport.running" color="79,230,125" fill="1" layer="-2.00" shape="1685.863804,3069.421667 1609.883794,2961.142646 1619.542761,2954.442957 1629.041563,2967.976419 1634.071398,2959.294516 1641.409134,2954.268400 1656.227315,2952.623292 1667.013767,2957.385370 1705.951638,3013.787969 1707.492467,3020.313393 1706.548060,3026.276732 1700.690406,3034.350224 1697.618257,3035.835280 1697.219896,3036.251016 1688.790216,3037.803030 1679.302711,3037.531295 1696.503488,3062.031905 1685.863804,3069.421667"/>
    <poly id="323384348" type="building.yes" color="255,230,230" fill="1" layer="-1.00" shape="2344.849020,3165.035917 2366.015606,3150.813063 2342.150694,3115.672678 2320.984073,3129.895566 2344.849020,3165.035917"/>
    <poly id="323384349" type="building.yes" color="255,230,230" fill="1" layer="-1.00" shape="2310.080749,3121.234803 2368.060466,3080.651678 2371.848894,3083.931538 2375.402726,3081.497908 2365.271765,3066.843091 2331.895456,3089.674526 2328.772425,3091.836011 2302.359795,3110.323060 2310.080749,3121.234803"/>
    <poly id="323384350" type="building.yes" color="255,230,230" fill="1" layer="-1.00" shape="2254.916099,3071.614254 2274.595429,3103.258858 2319.504238,3075.329539 2322.637541,3073.178983 2343.759231,3060.729439 2341.067735,3056.403288 2345.697357,3053.555179 2315.392326,3004.515223 2314.732061,2999.428351 2311.299241,2994.182311 2305.573766,2993.279396 2302.631995,2994.695942 2302.237774,2994.701667 2297.989645,3000.845869 2243.281953,3034.224540 2247.775596,3041.504819 2239.567927,3046.509998 2245.832228,3056.667323 2252.696977,3052.479360 2257.905130,3060.923665 2269.850658,3053.626197 2266.951502,3048.926380 2263.017989,3049.581792 2257.421701,3040.866141 2299.956573,3013.757883 2305.495453,3015.040199 2310.476378,3023.155444 2301.927733,3028.353882 2305.375965,3033.965311 2314.225121,3028.574164 2327.541779,3050.251261 2283.335267,3077.117815 2277.577032,3074.653214 2266.003376,3056.041958 2261.935001,3058.549566 2265.868788,3064.874086 2254.916099,3071.614254"/>
    <poly id="323384351" type="building.yes" color="255,230,230" fill="1" layer="-1.00" shape="2328.772425,3091.836011 2319.504238,3075.329539 2322.637541,3073.178983 2331.895456,3089.674526 2328.772425,3091.836011"/>
    <poly id="323384352" type="leisure.track" color="207,245,201" fill="1" layer="-2.00" shape="2331.980419,3165.156290 2333.491824,3169.676841 2330.739868,3179.289281 2327.675653,3183.410943 2322.167615,3185.640301 2316.867589,3185.484599 2319.443701,3189.524359 2313.362291,3193.346381 2257.461202,3105.535231 2264.143660,3101.327761 2270.299760,3110.999178 2271.703559,3108.109260 2276.698598,3103.970622 2282.456366,3102.923103 2293.292670,3103.485880 2331.980419,3165.156290"/>
    <poly id="323384352#1" type="sport.running" color="79,230,125" fill="1" layer="-2.00" shape="2331.980419,3165.156290 2333.491824,3169.676841 2330.739868,3179.289281 2327.675653,3183.410943 2322.167615,3185.640301 2316.867589,3185.484599 2319.443701,3189.524359 2313.362291,3193.346381 2257.461202,3105.535231 2264.143660,3101.327761 2270.299760,3110.999178 2271.703559,3108.109260 2276.698598,3103.970622 2282.456366,3102.923103 2293.292670,3103.485880 2331.980419,3165.156290"/>
    <poly id="323384353" type="leisure.pitch" color="207,245,201" fill="1" layer="-2.00" shape="2251.488534,3105.012627 2218.280544,3047.550470 2232.458987,3039.456060 2265.656662,3096.907318 2251.488534,3105.012627"/>
    <poly id="323384353#1" type="sport.basketball" color="79,230,125" fill="1" layer="-2.00" shape="2251.488534,3105.012627 2218.280544,3047.550470 2232.458987,3039.456060 2265.656662,3096.907318 2251.488534,3105.012627"/>
    <poly id="323384354" type="leisure.pitch" color="207,245,201" fill="1" layer="-2.00" shape="1658.061060,2607.919568 1676.811042,2606.161849 1670.460730,2538.770348 1651.700547,2540.528217 1658.061060,2607.919568"/>
    <poly id="323384354#1" type="sport.basketball" color="79,230,125" fill="1" layer="-2.00" shape="1658.061060,2607.919568 1676.811042,2606.161849 1670.460730,2538.770348 1651.700547,2540.528217 1658.061060,2607.919568"/>
    <poly id="323384355" type="leisure.track" color="207,245,201" fill="1" layer="-2.00" shape="1722.008816,2626.498908 1720.548197,2615.762183 1714.488438,2621.079848 1706.530804,2623.821520 1697.400418,2622.403381 1688.137700,2617.452880 1683.253432,2612.538330 1680.344735,2604.426331 1675.010230,2558.879484 1676.357403,2550.716582 1683.562734,2544.218892 1696.348133,2539.035937 1705.418998,2539.834506 1712.782525,2543.505320 1711.901580,2534.388811 1719.284795,2533.162295 1731.076399,2624.993044 1722.008816,2626.498908"/>
    <poly id="323384355#1" type="sport.running" color="79,230,125" fill="1" layer="-2.00" shape="1722.008816,2626.498908 1720.548197,2615.762183 1714.488438,2621.079848 1706.530804,2623.821520 1697.400418,2622.403381 1688.137700,2617.452880 1683.253432,2612.538330 1680.344735,2604.426331 1675.010230,2558.879484 1676.357403,2550.716582 1683.562734,2544.218892 1696.348133,2539.035937 1705.418998,2539.834506 1712.782525,2543.505320 1711.901580,2534.388811 1719.284795,2533.162295 1731.076399,2624.993044 1722.008816,2626.498908"/>
    <poly id="323384356" type="building.yes" color="255,230,230" fill="1" layer="-1.00" shape="1817.775369,2634.012515 1749.143925,2640.252071 1748.266985,2630.714490 1753.840611,2630.201250 1782.234224,2627.616360 1785.587035,2627.345968 1816.898638,2624.486009 1817.775369,2634.012515"/>
    <poly id="323384357" type="building.yes" color="255,230,230" fill="1" layer="-1.00" shape="1815.044200,2611.694264 1814.079312,2598.889573 1810.433023,2599.142070 1782.642106,2600.765305 1779.733581,2600.995992 1751.195116,2602.663411 1751.904123,2615.250242 1781.080530,2613.651091 1784.433344,2613.380699 1815.044200,2611.694264"/>
    <poly id="323384358" type="building.yes" color="255,230,230" fill="1" layer="-1.00" shape="1820.247749,2591.310199 1813.603406,2591.894390 1809.967224,2592.146740 1805.868334,2553.661560 1809.723046,2553.140126 1816.081143,2552.338515 1820.247749,2591.310199"/>
    <poly id="323384359" type="building.yes" color="255,230,230" fill="1" layer="-1.00" shape="1808.242118,2535.445902 1744.446778,2539.853447 1745.292310,2552.094832 1775.139677,2550.042740 1777.564129,2549.896655 1805.185883,2548.453149 1809.125012,2548.174231 1808.242118,2535.445902"/>
    <poly id="323384360" type="building.yes" color="255,230,230" fill="1" layer="-1.00" shape="1792.640768,2591.678777 1789.295271,2557.027144 1778.289642,2558.062609 1775.866160,2558.275155 1779.069203,2592.862386 1781.977730,2592.631699 1792.640768,2591.678777"/>
    <poly id="323384361" type="building.yes" color="255,230,230" fill="1" layer="-1.00" shape="1744.446778,2539.853447 1738.418712,2540.406542 1741.497502,2568.536353 1735.299216,2569.202721 1737.083876,2585.529771 1743.312319,2584.851885 1748.266985,2630.714490 1753.840611,2630.201250 1751.904123,2615.250242 1751.195116,2602.663411 1745.292310,2552.094832 1744.446778,2539.853447"/>
    <poly id="323384362" type="building.yes" color="255,230,230" fill="1" layer="-1.00" shape="1782.234224,2627.616360 1781.080530,2613.651091 1784.433344,2613.380699 1785.587035,2627.345968 1782.234224,2627.616360"/>
    <poly id="323384363" type="building.yes" color="255,230,230" fill="1" layer="-1.00" shape="1779.733581,2600.995992 1779.069203,2592.862386 1781.977730,2592.631699 1782.642106,2600.765305 1779.733581,2600.995992"/>
    <poly id="323384364" type="building.yes" color="255,230,230" fill="1" layer="-1.00" shape="1775.866160,2558.275155 1775.139677,2550.042740 1777.564129,2549.896655 1778.289642,2558.062609 1775.866160,2558.275155"/>
    <poly id="323384365" type="building.yes" color="255,230,230" fill="1" layer="-1.00" shape="1814.079312,2598.889573 1813.603406,2591.894390 1809.967224,2592.146740 1810.433023,2599.142070 1814.079312,2598.889573"/>
    <poly id="323384366" type="building.yes" color="255,230,230" fill="1" layer="-1.00" shape="1805.868334,2553.661560 1805.185883,2548.453149 1809.125012,2548.174231 1809.723046,2553.140126 1805.868334,2553.661560"/>