<?xml version="1.0" encoding="UTF-8"?>

<!-- generated on Mon Apr  6 15:29:20 2020 by Eclipse SUMO duarouter Version 1.3.1
<configuration xmlns:xsi="http://www.w3.org/2001/XMLSchema-instance" xsi:noNamespaceSchemaLocation="http://sumo.dlr.de/xsd/duarouterConfiguration.xsd">

    <input>
        <net-file value="/usr/local/Cellar/sumo/1.3.1/share/sumo/tools/2020-04-06-15-29-09/osm.net.xml"/>
        <route-files value="/usr/local/Cellar/sumo/1.3.1/share/sumo/tools/2020-04-06-15-29-09/osm.passenger.trips.xml"/>
    </input>

    <output>
        <output-file value="/usr/local/Cellar/sumo/1.3.1/share/sumo/tools/2020-04-06-15-29-09/osm.passenger.trips.xml.tmp"/>
        <write-trips value="true"/>
    </output>

    <time>
        <begin value="0"/>
        <end value="3600.0"/>
    </time>

    <report>
        <no-warnings value="true"/>
        <ignore-errors value="true"/>
        <no-step-log value="true"/>
    </report>

</configuration>
-->

<routes xmlns:xsi="http://www.w3.org/2001/XMLSchema-instance" xsi:noNamespaceSchemaLocation="http://sumo.dlr.de/xsd/routes_file.xsd">
    <vType id="veh_passenger" vClass="passenger"/>
    <trip id="veh0" type="veh_passenger" depart="0.00" departLane="best" from="321815939#1" to="-131542550#1"/>
    <trip id="veh1" type="veh_passenger" depart="1.93" departLane="best" departSpeed="max" from="102940156" to="-323734348#0"/>
    <trip id="veh2" type="veh_passenger" depart="3.86" departLane="best" from="323764063#5" to="323760203#1"/>
    <trip id="veh3" type="veh_passenger" depart="5.79" departLane="best" departSpeed="max" from="327353902" to="-215901913#2"/>
    <trip id="veh4" type="veh_passenger" depart="7.72" departLane="best" from="216717133#5" to="-131542554#0"/>
    <trip id="veh5" type="veh_passenger" depart="9.65" departLane="best" departSpeed="max" from="-323764058#1" to="28761860#7"/>
    <trip id="veh6" type="veh_passenger" depart="11.59" departLane="best" from="-131542550#2" to="-321782403"/>
    <trip id="veh7" type="veh_passenger" depart="13.52" departLane="best" from="321937347#1" to="289092809#1"/>
    <trip id="veh8" type="veh_passenger" depart="15.45" departLane="best" departSpeed="max" from="-323764058#1" to="303127153"/>
    <trip id="veh9" type="veh_passenger" depart="17.38" departLane="best" from="327260590#3" to="-12545607#2"/>
    <trip id="veh10" type="veh_passenger" depart="19.31" departLane="best" from="327260590#1" to="323761067#0"/>
    <trip id="veh11" type="veh_passenger" depart="21.24" departLane="best" from="131542554#3" to="-289092778#4"/>
    <trip id="veh12" type="veh_passenger" depart="23.17" departLane="best" from="540378353#4" to="131542550#1"/>
    <trip id="veh13" type="veh_passenger" depart="25.10" departLane="best" from="-215901913#8" to="-215958116#1"/>
    <trip id="veh14" type="veh_passenger" depart="27.03" departLane="best" departSpeed="max" from="327263405#0" to="321782403"/>
    <trip id="veh15" type="veh_passenger" depart="28.96" departLane="best" from="327260590#2" to="323764063#6"/>
    <trip id="veh16" type="veh_passenger" depart="30.90" departLane="best" departSpeed="max" from="289092760#0" to="540378353#6"/>
    <trip id="veh17" type="veh_passenger" depart="32.83" departLane="best" from="203558340#0" to="289092818#2"/>
    <trip id="veh19" type="veh_passenger" depart="36.69" departLane="best" from="327350113#2" to="28970182#1"/>
    <trip id="veh20" type="veh_passenger" depart="38.62" departLane="best" from="323760202#1" to="-131761674#4"/>
    <trip id="veh21" type="veh_passenger" depart="40.55" departLane="best" from="-326176439" to="-477881476#0"/>
    <trip id="veh22" type="veh_passenger" depart="42.48" departLane="best" from="-215901910#0" to="-323736874#6"/>
    <trip id="veh23" type="veh_passenger" depart="44.41" departLane="best" from="-216717133#4" to="-35434075"/>
    <trip id="veh25" type="veh_passenger" depart="48.27" departLane="best" from="164918063#2" to="-323447627#0"/>
    <trip id="veh26" type="veh_passenger" depart="50.21" departLane="best" from="-642541940#4" to="361876533#1"/>
    <trip id="veh27" type="veh_passenger" depart="52.14" departLane="best" from="321815939#7" to="321810668#0"/>
    <trip id="veh28" type="veh_passenger" depart="54.07" departLane="best" from="-289092819#1" to="323764063#5"/>
    <trip id="veh29" type="veh_passenger" depart="56.00" departLane="best" from="-289092816#1" to="164918063#3"/>
    <trip id="veh30" type="veh_passenger" depart="57.93" departLane="best" from="692965546#2" to="323734350#0"/>
    <trip id="veh31" type="veh_passenger" depart="59.86" departLane="best" from="289092809#0" to="323761066#0"/>
    <trip id="veh32" type="veh_passenger" depart="61.79" departLane="best" from="-326553051#1" to="-131542554#0"/>
    <trip id="veh33" type="veh_passenger" depart="63.72" departLane="best" from="126794531#2" to="-327263401"/>
    <trip id="veh34" type="veh_passenger" depart="65.65" departLane="best" from="-323760200#2" to="468684504"/>
    <trip id="veh35" type="veh_passenger" depart="67.58" departLane="best" departSpeed="max" from="327353899" to="12545583#1-AddedOnRampEdge"/>
    <trip id="veh36" type="veh_passenger" depart="69.52" departLane="best" departSpeed="max" from="323447627#0" to="203558342#0"/>
    <trip id="veh37" type="veh_passenger" depart="71.45" departLane="best" from="361876527#0" to="245021127#0"/>
    <trip id="veh38" type="veh_passenger" depart="73.38" departLane="best" from="-642541940#1" to="-323764060#0"/>
    <trip id="veh39" type="veh_passenger" depart="75.31" departLane="best" departSpeed="max" from="289092830#0" to="361876526"/>
    <trip id="veh40" type="veh_passenger" depart="77.24" departLane="best" from="215901912#2" to="-323570748#0"/>
    <trip id="veh41" type="veh_passenger" depart="79.17" departLane="best" from="692965573" to="28778988#0"/>
    <trip id="veh42" type="veh_passenger" depart="81.10" departLane="best" from="-215901913#6" to="-131761674#6"/>
    <trip id="veh43" type="veh_passenger" depart="83.03" departLane="best" from="-217506550#2" to="321815939#4"/>
    <trip id="veh44" type="veh_passenger" depart="84.96" departLane="best" departSpeed="max" from="326553063#0" to="216717133#2"/>
    <trip id="veh45" type="veh_passenger" depart="86.89" departLane="best" departSpeed="max" from="-186129469" to="167555513#2"/>
    <trip id="veh46" type="veh_passenger" depart="88.83" departLane="best" from="687747904#0" to="327353890"/>
    <trip id="veh47" type="veh_passenger" depart="90.76" departLane="best" from="-126794528#0" to="323764060#5"/>
    <trip id="veh48" type="veh_passenger" depart="92.69" departLane="best" from="323734350#5" to="289092778#5"/>
    <trip id="veh49" type="veh_passenger" depart="94.62" departLane="best" from="-642541940#4" to="323734350#0"/>
    <trip id="veh50" type="veh_passenger" depart="96.55" departLane="best" from="245021127#0" to="477860551#0"/>
    <trip id="veh51" type="veh_passenger" depart="98.48" departLane="best" departSpeed="max" from="327353899" to="-327260590#1"/>
    <trip id="veh52" type="veh_passenger" depart="100.41" departLane="best" from="28761860#4" to="-28970174#0"/>
    <trip id="veh53" type="veh_passenger" depart="102.34" departLane="best" from="361876525#6" to="327353890-AddedOnRampEdge"/>
    <trip id="veh56" type="veh_passenger" depart="108.14" departLane="best" from="326553053#1" to="289092778#8"/>
    <trip id="veh57" type="veh_passenger" depart="110.07" departLane="best" from="326553060#0" to="289092759"/>
    <trip id="veh58" type="veh_passenger" depart="112.00" departLane="best" from="-12545577#1" to="126794529#1"/>
    <trip id="veh59" type="veh_passenger" depart="113.93" departLane="best" from="-126794531#4" to="361876532#1"/>
    <trip id="veh60" type="veh_passenger" depart="115.86" departLane="best" departSpeed="max" from="327353899" to="327263398#1"/>
    <trip id="veh61" type="veh_passenger" depart="117.79" departLane="best" departSpeed="max" from="126794525#0" to="-203558339#0"/>
    <trip id="veh62" type="veh_passenger" depart="119.72" departLane="best" departSpeed="max" from="327353899" to="468684510#0"/>
    <trip id="veh63" type="veh_passenger" depart="121.65" departLane="best" from="-215901912#6" to="267003221#2"/>
    <trip id="veh64" type="veh_passenger" depart="123.58" departLane="best" departSpeed="max" from="-203558341#4" to="326553053#2"/>
    <trip id="veh65" type="veh_passenger" depart="125.51" departLane="best" from="326553053#3" to="-28778985#4"/>
    <trip id="veh66" type="veh_passenger" depart="127.45" departLane="best" departSpeed="max" from="255715794#0" to="289092818#1"/>
    <trip id="veh68" type="veh_passenger" depart="131.31" departLane="best" from="216717135#1" to="-323460936#0"/>
    <trip id="veh69" type="veh_passenger" depart="133.24" departLane="best" departSpeed="max" from="289092760#0" to="323764063#6"/>
    <trip id="veh70" type="veh_passenger" depart="135.17" departLane="best" from="-323570748#0" to="12545580#0"/>
    <trip id="veh71" type="veh_passenger" depart="137.10" departLane="best" from="692965572#0" to="323734350#7"/>
    <trip id="veh72" type="veh_passenger" depart="139.03" departLane="best" from="217774256#1" to="28793384#6"/>
    <trip id="veh73" type="veh_passenger" depart="140.96" departLane="best" departSpeed="max" from="-217774256#5" to="-323734348#0"/>
    <trip id="veh74" type="veh_passenger" depart="142.89" departLane="best" departSpeed="max" from="131542554#0" to="30104921#2"/>
    <trip id="veh75" type="veh_passenger" depart="144.82" departLane="best" from="-327260590#0" to="-323570759"/>
    <trip id="veh76" type="veh_passenger" depart="146.76" departLane="best" departSpeed="max" from="-203558341#4" to="321815939#6"/>
    <trip id="veh77" type="veh_passenger" depart="148.69" departLane="best" from="-326553051#1" to="361876527#1"/>
    <trip id="veh78" type="veh_passenger" depart="150.62" departLane="best" from="327350113#1" to="-204193486#0"/>
    <trip id="veh79" type="veh_passenger" depart="152.55" departLane="best" from="-327263405#2" to="323760202#6"/>
    <trip id="veh80" type="veh_passenger" depart="154.48" departLane="best" from="-323760202#3" to="-28778988#3"/>
    <trip id="veh81" type="veh_passenger" depart="156.41" departLane="best" from="361876533#1" to="28970175#7"/>
    <trip id="veh83" type="veh_passenger" depart="160.27" departLane="best" from="327260590#2" to="-28970180#2"/>
    <trip id="veh84" type="veh_passenger" depart="162.20" departLane="best" from="-215901921#6" to="217506550#0"/>
    <trip id="veh85" type="veh_passenger" depart="164.13" departLane="best" from="216717135#1" to="245021127#5"/>
    <trip id="veh86" type="veh_passenger" depart="166.07" departLane="best" from="323764063#0" to="323760203#1"/>
    <trip id="veh87" type="veh_passenger" depart="168.00" departLane="best" departSpeed="max" from="692965546#0" to="-216717133#3"/>
    <trip id="veh88" type="veh_passenger" depart="169.93" departLane="best" from="215901912#6" to="131542553#2"/>
    <trip id="veh89" type="veh_passenger" depart="171.86" departLane="best" from="327350113#2" to="-323764060#2"/>
    <trip id="veh90" type="veh_passenger" depart="173.79" departLane="best" from="-321407539#1" to="232446394#3"/>
    <trip id="veh91" type="veh_passenger" depart="175.72" departLane="best" from="216717133#5" to="-35434075"/>
    <trip id="veh92" type="veh_passenger" depart="177.65" departLane="best" from="-468684506#1" to="361876530#5"/>
    <trip id="veh93" type="veh_passenger" depart="179.58" departLane="best" from="232446394#3" to="327353890"/>
    <trip id="veh94" type="veh_passenger" depart="181.51" departLane="best" from="289092778#5" to="-164918057#0"/>
    <trip id="veh95" type="veh_passenger" depart="183.44" departLane="best" from="730094926#1" to="327263398#4"/>
    <trip id="veh96" type="veh_passenger" depart="185.38" departLane="best" from="687747903#0" to="361876531"/>
    <trip id="veh97" type="veh_passenger" depart="187.31" departLane="best" departSpeed="max" from="327263405#0" to="-289092818#0"/>
    <trip id="veh98" type="veh_passenger" depart="189.24" departLane="best" from="267003224#1" to="-323460936#0"/>
    <trip id="veh99" type="veh_passenger" depart="191.17" departLane="best" from="215901912#4" to="-203558339#1"/>
    <trip id="veh100" type="veh_passenger" depart="193.10" departLane="best" from="203558340#1" to="687747904#2"/>
    <trip id="veh102" type="veh_passenger" depart="196.96" departLane="best" from="245021127#1" to="216717133#3"/>
    <trip id="veh103" type="veh_passenger" depart="198.89" departLane="best" from="540378353#4" to="692965572#0"/>
    <trip id="veh104" type="veh_passenger" depart="200.82" departLane="best" from="289092808#1" to="323764060#2"/>
    <trip id="veh105" type="veh_passenger" depart="202.75" departLane="best" from="-289092741#4" to="-692965572#0"/>
    <trip id="veh106" type="veh_passenger" depart="204.68" departLane="best" from="687747903#0" to="29101589#1"/>
    <trip id="veh107" type="veh_passenger" depart="206.62" departLane="best" departSpeed="max" from="289092760#0" to="326540809#2"/>
    <trip id="veh110" type="veh_passenger" depart="212.41" departLane="best" from="-289092778#3" to="492346330#3"/>
    <trip id="veh111" type="veh_passenger" depart="214.34" departLane="best" from="28970175#11" to="323760203#1"/>
    <trip id="veh112" type="veh_passenger" depart="216.27" departLane="best" from="-327260590#3" to="-253275198#3"/>
    <trip id="veh113" type="veh_passenger" depart="218.20" departLane="best" from="327353899-AddedOffRampEdge" to="-323764060#0"/>
    <trip id="veh114" type="veh_passenger" depart="220.13" departLane="best" from="28970175#1" to="321810668#5"/>
    <trip id="veh115" type="veh_passenger" depart="222.06" departLane="best" from="216717133#2" to="29112680#3"/>
    <trip id="veh116" type="veh_passenger" depart="223.99" departLane="best" from="28829815#0" to="361876533#0"/>
    <trip id="veh117" type="veh_passenger" depart="225.93" departLane="best" from="-323575774#1" to="323764059#1"/>
    <trip id="veh118" type="veh_passenger" depart="227.86" departLane="best" from="-327263405#3" to="203558342#2"/>
    <trip id="veh119" type="veh_passenger" depart="229.79" departLane="best" departSpeed="max" from="323734348#0" to="-730094926#1"/>
    <trip id="veh120" type="veh_passenger" depart="231.72" departLane="best" from="126794531#3" to="326540809#3"/>
    <trip id="veh121" type="veh_passenger" depart="233.65" departLane="best" from="-203558342#2" to="245020916#0"/>
    <trip id="veh122" type="veh_passenger" depart="235.58" departLane="best" from="-642541940#2" to="361876532#1"/>
    <trip id="veh123" type="veh_passenger" depart="237.51" departLane="best" departSpeed="max" from="327353899" to="327632489"/>
    <trip id="veh124" type="veh_passenger" depart="239.44" departLane="best" from="164918063#1" to="-289092778#7"/>
    <trip id="veh125" type="veh_passenger" depart="241.37" departLane="best" from="327260632#0" to="323761070#0"/>
    <trip id="veh126" type="veh_passenger" depart="243.30" departLane="best" from="29112680#2" to="687747904#4"/>
    <trip id="veh127" type="veh_passenger" depart="245.24" departLane="best" from="323447626#1" to="-126487388#0"/>
    <trip id="veh128" type="veh_passenger" depart="247.17" departLane="best" from="327260596#2" to="-730094926#1"/>
    <trip id="veh129" type="veh_passenger" depart="249.10" departLane="best" from="323460936#1" to="465391014#1"/>
    <trip id="veh130" type="veh_passenger" depart="251.03" departLane="best" from="-28778985#3" to="-217774256#1"/>
    <trip id="veh131" type="veh_passenger" depart="252.96" departLane="best" from="-217506549#0" to="289092818#3"/>
    <trip id="veh132" type="veh_passenger" depart="254.89" departLane="best" departSpeed="max" from="102940156" to="321782407#1"/>
    <trip id="veh135" type="veh_passenger" depart="260.68" departLane="best" from="267003224#2" to="361876527#1"/>
    <trip id="veh136" type="veh_passenger" depart="262.61" departLane="best" from="327263404#0" to="-215901915#0"/>
    <trip id="veh137" type="veh_passenger" depart="264.55" departLane="best" from="216717135#1" to="-327353902"/>
    <trip id="veh138" type="veh_passenger" depart="266.48" departLane="best" from="-12545577#5" to="326553056#3"/>
    <trip id="veh139" type="veh_passenger" depart="268.41" departLane="best" from="321815936#1" to="-327260590#0"/>
    <trip id="veh140" type="veh_passenger" depart="270.34" departLane="best" from="323764077#0" to="289092818#2"/>
    <trip id="veh141" type="veh_passenger" depart="272.27" departLane="best" from="217506549#0" to="-126794526#0"/>
    <trip id="veh142" type="veh_passenger" depart="274.20" departLane="best" from="-203558342#5" to="327632493"/>
    <trip id="veh143" type="veh_passenger" depart="276.13" departLane="best" departSpeed="max" from="35434075" to="289092809#1"/>
    <trip id="veh144" type="veh_passenger" depart="278.06" departLane="best" from="327260632#0" to="29112680#1"/>
    <trip id="veh145" type="veh_passenger" depart="279.99" departLane="best" from="-28793386#4" to="-28778985#1"/>
    <trip id="veh146" type="veh_passenger" depart="281.92" departLane="best" departSpeed="max" from="126794525#0" to="361876526"/>
    <trip id="veh147" type="veh_passenger" depart="283.86" departLane="best" from="326553063#2" to="327353890"/>
    <trip id="veh148" type="veh_passenger" depart="285.79" departLane="best" from="327632493" to="-323447627#0"/>
    <trip id="veh149" type="veh_passenger" depart="287.72" departLane="best" from="326553060#0" to="35264124#1"/>
    <trip id="veh150" type="veh_passenger" depart="289.65" departLane="best" departSpeed="max" from="215901913#0" to="321813305"/>
    <trip id="veh151" type="veh_passenger" depart="291.58" departLane="best" from="-289092741#4" to="361876532#1"/>
    <trip id="veh153" type="veh_passenger" depart="295.44" departLane="best" from="-131542550#0" to="326176439"/>
    <trip id="veh154" type="veh_passenger" depart="297.37" departLane="best" departSpeed="max" from="131542552" to="361876532#1"/>
    <trip id="veh155" type="veh_passenger" depart="299.30" departLane="best" departSpeed="max" from="326553070" to="327353890"/>
    <trip id="veh156" type="veh_passenger" depart="301.23" departLane="best" departSpeed="max" from="326553063#0" to="-217506550#4"/>
    <trip id="veh157" type="veh_passenger" depart="303.17" departLane="best" from="327353890-AddedOnRampEdge" to="327353890"/>
    <trip id="veh158" type="veh_passenger" depart="305.10" departLane="best" from="-323764059#2" to="327260598"/>
    <trip id="veh160" type="veh_passenger" depart="308.96" departLane="best" from="326553063#2" to="-323736874#0"/>
    <trip id="veh161" type="veh_passenger" depart="310.89" departLane="best" from="-131542547#1" to="-29112680#2"/>
    <trip id="veh162" type="veh_passenger" depart="312.82" departLane="best" from="131542550#0" to="327353890"/>
    <trip id="veh163" type="veh_passenger" depart="314.75" departLane="best" from="642541943" to="-35434075"/>
    <trip id="veh164" type="veh_passenger" depart="316.68" departLane="best" from="321815939#3" to="204192726#0"/>
    <trip id="veh165" type="veh_passenger" depart="318.61" departLane="best" departSpeed="max" from="692965546#0" to="289092778#3"/>
    <trip id="veh166" type="veh_passenger" depart="320.54" departLane="best" from="468684510#1" to="-217774256#1"/>
    <trip id="veh167" type="veh_passenger" depart="322.48" departLane="best" from="687747904#0" to="-28970174#0"/>
    <trip id="veh168" type="veh_passenger" depart="324.41" departLane="best" from="540378353#7" to="-327260590#2"/>
    <trip id="veh169" type="veh_passenger" depart="326.34" departLane="best" from="323764063#0" to="12545583#1"/>
    <trip id="veh170" type="veh_passenger" depart="328.27" departLane="best" from="289960864#1" to="28778988#2"/>
    <trip id="veh171" type="veh_passenger" depart="330.20" departLane="best" departSpeed="max" from="203558345#0" to="28970182#0"/>
    <trip id="veh172" type="veh_passenger" depart="332.13" departLane="best" from="-477860540" to="323761070#1"/>
    <trip id="veh173" type="veh_passenger" depart="334.06" departLane="best" from="-12545577#3" to="361876531"/>
    <trip id="veh174" type="veh_passenger" depart="335.99" departLane="best" departSpeed="max" from="289092760#0" to="323764060#3"/>
    <trip id="veh175" type="veh_passenger" depart="337.92" departLane="best" from="323764077#1" to="323760203#0"/>
    <trip id="veh176" type="veh_passenger" depart="339.85" departLane="best" from="164918057#3" to="-204193486#0"/>
    <trip id="veh177" type="veh_passenger" depart="341.79" departLane="best" departSpeed="max" from="323460937" to="126794531#7"/>
    <trip id="veh178" type="veh_passenger" depart="343.72" departLane="best" from="126794529#0" to="327350113#1"/>
    <trip id="veh180" type="veh_passenger" depart="347.58" departLane="best" departSpeed="max" from="126794525#0" to="215901912#5"/>
    <trip id="veh181" type="veh_passenger" depart="349.51" departLane="best" from="-255532676" to="215958116#0"/>
    <trip id="veh182" type="veh_passenger" depart="351.44" departLane="best" from="468684515" to="323760203#1"/>
    <trip id="veh183" type="veh_passenger" depart="353.37" departLane="best" departSpeed="max" from="35434075" to="321810668#5"/>
    <trip id="veh184" type="veh_passenger" depart="355.30" departLane="best" from="12545607#3" to="289092816#2"/>
    <trip id="veh185" type="veh_passenger" depart="357.23" departLane="best" from="217506550#2" to="29101589#1-AddedOnRampEdge"/>
    <trip id="veh186" type="veh_passenger" depart="359.16" departLane="best" departSpeed="max" from="323447627#0" to="245021127#4"/>
    <trip id="veh187" type="veh_passenger" depart="361.10" departLane="best" from="232446394#3" to="-323460936#0"/>
    <trip id="veh188" type="veh_passenger" depart="363.03" departLane="best" departSpeed="max" from="255715794#0" to="361876527#0"/>
    <trip id="veh189" type="veh_passenger" depart="364.96" departLane="best" from="326553063#2" to="-289092818#1"/>
    <trip id="veh190" type="veh_passenger" depart="366.89" departLane="best" from="321810668#1" to="131542547#1"/>
    <trip id="veh191" type="veh_passenger" depart="368.82" departLane="best" from="327260596#2" to="326540809#3"/>
    <trip id="veh192" type="veh_passenger" depart="370.75" departLane="best" departSpeed="max" from="-465391014#1" to="245021127#9"/>
    <trip id="veh193" type="veh_passenger" depart="372.68" departLane="best" departSpeed="max" from="327263405#0" to="-204193486#2"/>
    <trip id="veh194" type="veh_passenger" depart="374.61" departLane="best" from="215901915#0" to="321815939#6"/>
    <trip id="veh195" type="veh_passenger" depart="376.54" departLane="best" from="-321415416" to="323761066#2"/>
    <trip id="veh196" type="veh_passenger" depart="378.47" departLane="best" from="267003225#1" to="-323764059#2"/>
    <trip id="veh197" type="veh_passenger" depart="380.41" departLane="best" departSpeed="max" from="323447627#0" to="-12545607#0"/>
    <trip id="veh198" type="veh_passenger" depart="382.34" departLane="best" departSpeed="max" from="326540805#0" to="326553056#2"/>
    <trip id="veh199" type="veh_passenger" depart="384.27" departLane="best" from="-28970174#2" to="477881476#1"/>
    <trip id="veh200" type="veh_passenger" depart="386.20" departLane="best" from="28793384#9" to="-164918057#0"/>
    <trip id="veh201" type="veh_passenger" depart="388.13" departLane="best" from="-468684506#0" to="327350113#1"/>
    <trip id="veh202" type="veh_passenger" depart="390.06" departLane="best" from="245021127#2" to="327260597#0"/>
    <trip id="veh203" type="veh_passenger" depart="391.99" departLane="best" from="323570748#0" to="687747904#4"/>
    <trip id="veh204" type="veh_passenger" depart="393.92" departLane="best" from="28970175#11" to="477828943#1"/>
    <trip id="veh205" type="veh_passenger" depart="395.85" departLane="best" departSpeed="max" from="327353902" to="321810668#4"/>
    <trip id="veh206" type="veh_passenger" depart="397.78" departLane="best" from="323764059#1" to="28761860#6"/>
    <trip id="veh208" type="veh_passenger" depart="401.65" departLane="best" from="327632490#0" to="326540807#1"/>
    <trip id="veh209" type="veh_passenger" depart="403.58" departLane="best" departSpeed="max" from="255715794#0" to="-326553070"/>
    <trip id="veh210" type="veh_passenger" depart="405.51" departLane="best" departSpeed="max" from="-468684504" to="323570759"/>
    <trip id="veh211" type="veh_passenger" depart="407.44" departLane="best" from="326553053#3" to="28793386#3"/>
    <trip id="veh212" type="veh_passenger" depart="409.37" departLane="best" from="321782407#1" to="-327353902"/>
    <trip id="veh213" type="veh_passenger" depart="411.30" departLane="best" from="-204193486#1" to="-477828943#1"/>
    <trip id="veh214" type="veh_passenger" depart="413.23" departLane="best" from="-730094926#1" to="126794526#1"/>
    <trip id="veh215" type="veh_passenger" depart="415.16" departLane="best" departSpeed="max" from="289092760#0" to="-28793384#7"/>
    <trip id="veh216" type="veh_passenger" depart="417.09" departLane="best" from="-327260590#1" to="323761066#2"/>
    <trip id="veh217" type="veh_passenger" depart="419.02" departLane="best" from="323760202#4" to="-203558345#0"/>
    <trip id="veh218" type="veh_passenger" depart="420.96" departLane="best" from="215901913#1" to="289092808#1"/>
    <trip id="veh219" type="veh_passenger" depart="422.89" departLane="best" from="215901921#4" to="-323447627#0"/>
    <trip id="veh220" type="veh_passenger" depart="424.82" departLane="best" from="216717133#3" to="361876527#1"/>
    <trip id="veh221" type="veh_passenger" depart="426.75" departLane="best" departSpeed="max" from="289092830#0" to="323761066#2"/>
    <trip id="veh222" type="veh_passenger" depart="428.68" departLane="best" from="327350113#0" to="326553053#5"/>
    <trip id="veh223" type="veh_passenger" depart="430.61" departLane="best" from="203558341#0" to="-12545607#2"/>
    <trip id="veh224" type="veh_passenger" depart="432.54" departLane="best" from="131761674#3" to="326540809#3"/>
    <trip id="veh225" type="veh_passenger" depart="434.47" departLane="best" from="327263405#4" to="477860541#4"/>
    <trip id="veh226" type="veh_passenger" depart="436.40" departLane="best" from="215958116#1" to="326540809#2"/>
    <trip id="veh227" type="veh_passenger" depart="438.33" departLane="best" from="289092778#0" to="321415416"/>
    <trip id="veh228" type="veh_passenger" depart="440.27" departLane="best" departSpeed="max" from="-323764058#1" to="-323570748#0"/>
    <trip id="veh229" type="veh_passenger" depart="442.20" departLane="best" from="217774255#2" to="-131542552"/>
    <trip id="veh230" type="veh_passenger" depart="444.13" departLane="best" departSpeed="max" from="131542554#0" to="323760203#1"/>
    <trip id="veh231" type="veh_passenger" depart="446.06" departLane="best" from="253275198#4" to="-28778985#3"/>
    <trip id="veh232" type="veh_passenger" depart="447.99" departLane="best" from="321415409#2" to="-131542552"/>
    <trip id="veh233" type="veh_passenger" depart="449.92" departLane="best" from="204193486#1" to="28970174#1"/>
    <trip id="veh234" type="veh_passenger" depart="451.85" departLane="best" from="-131542554#1" to="323734350#1"/>
    <trip id="veh235" type="veh_passenger" depart="453.78" departLane="best" from="-28778985#5" to="245021127#2"/>
    <trip id="veh236" type="veh_passenger" depart="455.71" departLane="best" departSpeed="max" from="-152927873#1" to="164918063#3"/>
    <trip id="veh237" type="veh_passenger" depart="457.64" departLane="best" from="-323760200#3" to="126794531#2"/>
    <trip id="veh238" type="veh_passenger" depart="459.58" departLane="best" from="326553053#0" to="164918063#3"/>
    <trip id="veh239" type="veh_passenger" depart="461.51" departLane="best" departSpeed="max" from="326540805#0" to="327263398#2"/>
    <trip id="veh240" type="veh_passenger" depart="463.44" departLane="best" from="-468684510#2" to="-215901913#0"/>
    <trip id="veh241" type="veh_passenger" depart="465.37" departLane="best" from="-126794531#4" to="289092778#8"/>
    <trip id="veh242" type="veh_passenger" depart="467.30" departLane="best" from="730094926#1" to="131761674#5"/>
    <trip id="veh243" type="veh_passenger" depart="469.23" departLane="best" from="321937347#1" to="326553060#1"/>
    <trip id="veh244" type="veh_passenger" depart="471.16" departLane="best" departSpeed="max" from="323447626#0" to="326540809#3"/>
    <trip id="veh245" type="veh_passenger" depart="473.09" departLane="best" from="540378352#0" to="-321813305"/>
    <trip id="veh246" type="veh_passenger" depart="475.02" departLane="best" from="-253275198#4" to="323760202#6"/>
    <trip id="veh247" type="veh_passenger" depart="476.95" departLane="best" departSpeed="max" from="289092818#0" to="-323460937"/>
    <trip id="veh248" type="veh_passenger" depart="478.89" departLane="best" from="323760200#1" to="326553056#0"/>
    <trip id="veh249" type="veh_passenger" depart="480.82" departLane="best" from="-289092818#2" to="321782407#3"/>
    <trip id="veh250" type="veh_passenger" depart="482.75" departLane="best" departSpeed="max" from="326540805#0" to="-217774256#0"/>
    <trip id="veh251" type="veh_passenger" depart="484.68" departLane="best" from="327260597#0" to="540378353#1"/>
    <trip id="veh252" type="veh_passenger" depart="486.61" departLane="best" from="-217506550#0" to="-131542550#2"/>
    <trip id="veh253" type="veh_passenger" depart="488.54" departLane="best" from="126794526#1" to="323760203#1"/>
    <trip id="veh254" type="veh_passenger" depart="490.47" departLane="best" from="540378353#4" to="203558342#3"/>
    <trip id="veh255" type="veh_passenger" depart="492.40" departLane="best" from="323761066#1" to="-215901910#4"/>
    <trip id="veh256" type="veh_passenger" depart="494.33" departLane="best" from="323736874#1" to="321815939#4"/>